<configuration>
    <input>
        <net-file value="./Net/dqnm.net.xml"/>
        <route-files value="./Rou/random.rou.xml"/>
        <additional-files value="./Add/random.det.xml"/>
        <gui-settings-file value="rl1.settings.xml"/>
    </input>
    
    <time>
        <begin value="0"/>
        <end value="10000"/>
    </time>
</configuration>